thermo 100
thermo_style custom step temp press density
run 20000
  update every 1 steps, delay 10 steps, check yes
Step Temp Press Density
0            5   0.00499875        0.001
Averages over the last 101 of 201 rows, steps 10000 to 20000:
Temp Press Density
5.00286 0.00500534 0.001
Loop time of 1.77518 on 4 procs for 20000 steps with 4000 atoms

clear
next rho
jump SELF rloop

variable rho index 0.001 0.005 0.01 0.05
variable T index 1e-8 1 2.5 5 10

units lj
dimension 3
boundary p p p
atom_style atomic

lattice fcc 0.005
Lattice spacing in x,y,z = 9.28318 9.28318 9.28318
region simbox block 0 10 0 10 0 10
create_box 1 simbox
Created orthogonal box = (0 0 0) to (92.8318 92.8318 92.8318)
create_atoms 1 box
Created 4000 atoms

mass 1 1.0
velocity all create 5 87287 dist uniform

pair_style lj/cut 3.0
pair_coeff 1 1 1.0 1.0 3.0

fix f all nve

# A log file for each T
log log.T5 append

thermo 100
thermo_style custom step temp press density
run 20000
  update every 1 steps, delay 10 steps, check yes
Step Temp Press Density
0            5   0.02499375        0.005
Averages over the last 101 of 201 rows, steps 10000 to 20000:
Temp Press Density
5.015 0.025146 0.005
Loop time of 1.23845 on 4 procs for 20000 steps with 4000 atoms

clear
next rho
jump SELF rloop

variable rho index 0.001 0.005 0.01 0.05
variable T index 1e-8 1 2.5 5 10

units lj
dimension 3
boundary p p p
atom_style atomic

lattice fcc 0.01
Lattice spacing in x,y,z = 7.36806 7.36806 7.36806
region simbox block 0 10 0 10 0 10
create_box 1 simbox
Created orthogonal box = (0 0 0) to (73.6806 73.6806 73.6806)
create_atoms 1 box
Created 4000 atoms

mass 1 1.0
velocity all create 5 87287 dist uniform

pair_style lj/cut 3.0
pair_coeff 1 1 1.0 1.0 3.0

fix f all nve

# A log file for each T
log log.T5 append

thermo 100
thermo_style custom step temp press density
run 20000
  update every 1 steps, delay 10 steps, check yes
Step Temp Press Density
0            5    0.0499875         0.01
Averages over the last 101 of 201 rows, steps 10000 to 20000:
Temp Press Density
5.02976 0.0506551 0.01
Loop time of 1.38583 on 4 procs for 20000 steps with 4000 atoms

clear
next rho
jump SELF rloop

variable rho index 0.001 0.005 0.01 0.05
variable T index 1e-8 1 2.5 5 10

units lj
dimension 3
boundary p p p
atom_style atomic

lattice fcc 0.05
Lattice spacing in x,y,z = 4.30887 4.30887 4.30887
region simbox block 0 10 0 10 0 10
create_box 1 simbox
Created orthogonal box = (0 0 0) to (43.0887 43.0887 43.0887)
create_atoms 1 box
Created 4000 atoms

mass 1 1.0
velocity all create 5 87287 dist uniform

pair_style lj/cut 3.0
pair_coeff 1 1 1.0 1.0 3.0

fix f all nve

# A log file for each T
log log.T5 append

thermo 100
thermo_style custom step temp press density
run 20000
  update every 1 steps, delay 10 steps, check yes
Step Temp Press Density
0            5    0.2499375         0.05
Averages over the last 101 of 201 rows, steps 10000 to 20000:
Temp Press Density
5.1445 0.266799 0.05
Loop time of 2.99293 on 4 procs for 20000 steps with 4000 atoms

clear
next rho
jump SELF rloop

clear
next T
jump SELF tloop
label rloop

variable rho index 0.001 0.005 0.01 0.05
variable T index 1e-8 1 2.5 5 10

units lj
dimension 3
boundary p p p
atom_style atomic

lattice fcc 0.001
Lattice spacing in x,y,z = 15.874 15.874 15.874
region simbox block 0 10 0 10 0 10
create_box 1 simbox
Created orthogonal box = (0 0 0) to (158.74 158.74 158.74)
create_atoms 1 box
Created 4000 atoms

mass 1 1.0
velocity all create 10 87287 dist uniform

pair_style lj/cut 3.0
pair_coeff 1 1 1.0 1.0 3.0

fix f all nve

# A log file for each T
log log.T10 append
