thermo 100
thermo_style custom step temp press density
run 20000
  update every 1 steps, delay 10 steps, check yes
Step Temp Press Density
0        1e-08   9.9975e-12        0.001
Averages over the last 101 of 201 rows, steps 10000 to 20000:
Temp Press Density
1e-08 9.9975e-12 0.001
Loop time of 0.506152 on 4 procs for 20000 steps with 4000 atoms

clear
next rho
jump SELF rloop

variable rho index 0.001 0.005 0.01 0.05
variable T index 1e-8 1 2.5 5 10

units lj
dimension 3
boundary p p p
atom_style atomic

lattice fcc 0.005
Lattice spacing in x,y,z = 9.28318 9.28318 9.28318
region simbox block 0 10 0 10 0 10
create_box 1 simbox
Created orthogonal box = (0 0 0) to (92.8318 92.8318 92.8318)
create_atoms 1 box
Created 4000 atoms

mass 1 1.0
velocity all create 1e-8 87287 dist uniform

pair_style lj/cut 3.0
pair_coeff 1 1 1.0 1.0 3.0

fix f all nve

# A log file for each T
log log.T1e-8 append

thermo 100
thermo_style custom step temp press density
run 20000
  update every 1 steps, delay 10 steps, check yes
Step Temp Press Density
0        1e-08  4.99875e-11        0.005
Averages over the last 101 of 201 rows, steps 10000 to 20000:
Temp Press Density
1e-08 4.99875e-11 0.005
Loop time of 0.497222 on 4 procs for 20000 steps with 4000 atoms

clear
next rho
jump SELF rloop

variable rho index 0.001 0.005 0.01 0.05
variable T index 1e-8 1 2.5 5 10

units lj
dimension 3
boundary p p p
atom_style atomic

lattice fcc 0.01
Lattice spacing in x,y,z = 7.36806 7.36806 7.36806
region simbox block 0 10 0 10 0 10
create_box 1 simbox
Created orthogonal box = (0 0 0) to (73.6806 73.6806 73.6806)
create_atoms 1 box
Created 4000 atoms

mass 1 1.0
velocity all create 1e-8 87287 dist uniform

pair_style lj/cut 3.0
pair_coeff 1 1 1.0 1.0 3.0

fix f all nve

# A log file for each T
log log.T1e-8 append

thermo 100
thermo_style custom step temp press density
run 20000
  update every 1 steps, delay 10 steps, check yes
Step Temp Press Density
0        1e-08   9.9975e-11         0.01
Averages over the last 101 of 201 rows, steps 10000 to 20000:
Temp Press Density
1e-08 9.9975e-11 0.01
Loop time of 0.488184 on 4 procs for 20000 steps with 4000 atoms

clear
next rho
jump SELF rloop

variable rho index 0.001 0.005 0.01 0.05
variable T index 1e-8 1 2.5 5 10

units lj
dimension 3
boundary p p p
atom_style atomic

lattice fcc 0.05
Lattice spacing in x,y,z = 4.30887 4.30887 4.30887
region simbox block 0 10 0 10 0 10
create_box 1 simbox
Created orthogonal box = (0 0 0) to (43.0887 43.0887 43.0887)
create_atoms 1 box
Created 4000 atoms

mass 1 1.0
velocity all create 1e-8 87287 dist uniform

pair_style lj/cut 3.0
pair_coeff 1 1 1.0 1.0 3.0

fix f all nve

# A log file for each T
log log.T1e-8 append

thermo 100
thermo_style custom step temp press density
run 20000
  update every 1 steps, delay 10 steps, check yes
Step Temp Press Density
0        1e-08  4.99875e-10         0.05
Averages over the last 101 of 201 rows, steps 10000 to 20000:
Temp Press Density
1e-08 4.99875e-10 0.05
Loop time of 1.21054 on 4 procs for 20000 steps with 4000 atoms

clear
next rho
jump SELF rloop

clear
next T
jump SELF tloop
label rloop

variable rho index 0.001 0.005 0.01 0.05
variable T index 1e-8 1 2.5 5 10

units lj
dimension 3
boundary p p p
atom_style atomic

lattice fcc 0.001
Lattice spacing in x,y,z = 15.874 15.874 15.874
region simbox block 0 10 0 10 0 10
create_box 1 simbox
Created orthogonal box = (0 0 0) to (158.74 158.74 158.74)
create_atoms 1 box
Created 4000 atoms

mass 1 1.0
velocity all create 1 87287 dist uniform

pair_style lj/cut 3.0
pair_coeff 1 1 1.0 1.0 3.0

fix f all nve

# A log file for each T
log log.T1 append
