run 20000
  update every 1 steps, delay 10 steps, check yes
Step Temp Press TotEng Density c_myMSD[4] Time
0          2.5   0.02499375    3.7490625         0.01            0            0
Averages over the last 101 of 201 rows, steps 10000 to 20000:
Temp Press TotEng Density c_myMSD[4]
2.5047 0.0249355 3.69527 0.01 12288.3
Loop time of 3.09586 on 4 procs for 20000 steps with 4000 atoms

clear

units lj
dimension 3
boundary p p p
atom_style atomic

lattice fcc 0.01
Lattice spacing in x,y,z = 7.36806 7.36806 7.36806
region simbox block 0 10 0 10 0 10
create_box 1 simbox
Created orthogonal box = (0 0 0) to (73.6806 73.6806 73.6806)
create_atoms 1 box
Created 4000 atoms

mass 1 1.0

velocity all create 2.5 87287 dist uniform

pair_style lj/cut 3.0
pair_coeff 1 1 1.0 1.0 3.0

compute myMSD all msd
compute myRDF all rdf 100

fix 1 all nve
fix 2 all temp/berendsen 2.5 2.5 1.0

fix 3 all ave/time 1 20000 20000 c_myRDF[*] file time_avg_rdf_berendsen.txt mode vector

dump 1 all custom 100 dump.task_i_berendsen id type x y z vx vy vz
thermo 100

thermo_style custom step temp press etotal density c_myMSD[4] time
log log.berendsen
